/*--------------------------------*- C++ -*----------------------------------*\
  =========                 |
  \\      /  F ield         | OpenFOAM: The Open Source CFD Toolbox
   \\    /   O peration     | Website:  https://openfoam.org
    \\  /    A nd           | Version:  9
     \\/     M anipulation  |
\*---------------------------------------------------------------------------*/
FoamFile
{
    format      ascii;
    class       extendedFeatureEdgeMesh;
    location    "constant/extendedFeatureEdgeMesh";
    object      userobject.extendedFeatureEdgeMesh;
}
// * * * * * * * * * * * * * * * * * * * * * * * * * * * * * * * * * * * * * //

// points

1354
(
(-24.8326 24.8326 1.42855)
(-18.2337 -25.1025 0.657205)
(-10.6846 -24.6012 0.288206)
(7.60307 -25.2642 -0.566753)
(12.832 -25.2832 -0.484849)
(-25.0399 -16.8215 -0.291604)
(-25.0233 -16.7834 -0.264885)
(-25.2912 -12.3809 -0.098513)
(-25.3104 -9.56622 -0.0409669)
(25.0609 -7.93261 0.277581)
(25.126 0.671311 0.839335)
(25.0777 22.1577 0.290331)
(-25.0781 23.7147 0.327096)
(-24.8661 25.1827 0.492458)
(-16.0029 25.0604 0.959814)
(-16.5925 25.0835 0.989856)
(-0.606032 25.2586 1.50713)
(20.8639 24.9485 0.524333)
(-25 -16.8367 0.733406)
(-25 -2.55102 0.590565)
(-25 19.898 1.24488)
(20.6633 25 1.50641)
(-24.9786 -16.7034 -0.307924)
(-24.73 -2.49832 -0.417445)
(-24.864 20.0916 0.261831)
(3.27973 24.9436 0.780097)
(6.44844 25.0291 0.47598)
(20.7755 24.8856 0.519354)
(-24.8326 -24.8326 0.840832)
(-24.6732 -24.9283 0.903869)
(-24.9283 -24.6732 0.796464)
(-24.4685 -24.9787 0.953357)
(-24.232 -24.9973 0.99191)
(-23.9796 -25 1.06747)
(-25 -23.9796 0.770293)
(-24.9973 -24.232 0.75018)
(-24.9787 -24.4685 0.758019)
(-23.7245 -25 1.15079)
(-23.4694 -25 1.21869)
(-23.2143 -25 1.25684)
(-22.9592 -25 1.29444)
(-22.7041 -25 1.34086)
(-22.449 -25 1.39871)
(-22.1939 -25 1.50477)
(-21.9388 -25 1.59008)
(-21.6837 -25 1.65422)
(-21.4286 -25 1.67254)
(-21.1735 -25 1.66461)
(-20.9184 -25 1.62507)
(-20.6633 -25 1.59034)
(-20.4082 -25 1.5564)
(-20.1531 -25 1.51868)
(-19.898 -25 1.49775)
(-19.6429 -25 1.51489)
(-19.3878 -25 1.56337)
(-19.1327 -25 1.53401)
(-18.8776 -25 1.52965)
(-18.6224 -25 1.57971)
(-18.3673 -25 1.64292)
(-18.1122 -25 1.65598)
(-17.8571 -25 1.60781)
(-17.602 -25 1.60676)
(-17.3469 -25 1.67611)
(-17.0918 -25 1.71493)
(-16.8367 -25 1.71336)
(-16.5816 -25 1.66898)
(-16.3265 -25 1.61812)
(-16.0714 -25 1.57929)
(-15.8163 -25 1.54096)
(-15.5612 -25 1.49659)
(-15.3061 -25 1.49481)
(-15.051 -25 1.46693)
(-14.7959 -25 1.41678)
(-14.5408 -25 1.37905)
(-14.2857 -25 1.35029)
(-14.0306 -25 1.28625)
(-13.7755 -25 1.24258)
(-13.5204 -25 1.23511)
(-13.2653 -25 1.18573)
(-13.0102 -25 1.18818)
(-12.7551 -25 1.16253)
(-12.5 -25 1.11098)
(-12.2449 -25 1.08506)
(-11.9898 -25 1.04906)
(-11.7347 -25 1.03974)
(-11.4796 -25 1.06015)
(-11.2245 -25 1.10461)
(-10.9694 -25 1.16368)
(-10.7143 -25 1.20474)
(-10.4592 -25 1.16751)
(-10.2041 -25 1.17075)
(-9.94898 -25 1.19204)
(-9.69388 -25 1.22121)
(-9.43878 -25 1.18978)
(-9.18367 -25 1.1524)
(-8.92857 -25 1.11664)
(-8.67347 -25 1.10528)
(-8.41837 -25 1.11347)
(-8.16327 -25 1.11984)
(-7.90816 -25 1.15585)
(-7.65306 -25 1.20466)
(-7.39796 -25 1.26665)
(-7.14286 -25 1.32035)
(-6.88775 -25 1.35459)
(-6.63265 -25 1.34571)
(-6.37755 -25 1.35729)
(-6.12245 -25 1.35075)
(-5.86735 -25 1.30733)
(-5.61225 -25 1.26977)
(-5.35714 -25 1.22673)
(-5.10204 -25 1.20047)
(-4.84694 -25 1.19481)
(-4.59184 -25 1.21682)
(-4.33674 -25 1.27393)
(-4.08163 -25 1.30916)
(-3.82653 -25 1.35304)
(-3.57143 -25 1.36501)
(-3.31633 -25 1.37845)
(-3.06122 -25 1.42245)
(-2.80612 -25 1.44703)
(-2.55102 -25 1.42001)
(-2.29592 -25 1.419)
(-2.04082 -25 1.44735)
(-1.78571 -25 1.47506)
(-1.53061 -25 1.50848)
(-1.27551 -25 1.55016)
(-1.02041 -25 1.52311)
(-0.765306 -25 1.49318)
(-0.510204 -25 1.46133)
(-0.255102 -25 1.37652)
(-4.09782e-08 -25 1.27709)
(0.255102 -25 1.20499)
(0.510204 -25 1.17312)
(0.765306 -25 1.13629)
(1.02041 -25 1.06148)
(1.27551 -25 0.96572)
(1.53061 -25 0.843284)
(1.78571 -25 0.754259)
(2.04082 -25 0.699471)
(2.29592 -25 0.664812)
(2.55102 -25 0.62328)
(2.80612 -25 0.583301)
(3.06122 -25 0.581619)
(3.31633 -25 0.592702)
(3.57143 -25 0.520571)
(3.82653 -25 0.467743)
(4.08163 -25 0.443984)
(4.33673 -25 0.414103)
(4.59184 -25 0.414186)
(4.84694 -25 0.445844)
(5.10204 -25 0.45547)
(5.35714 -25 0.422666)
(5.61225 -25 0.434011)
(5.86735 -25 0.417233)
(6.12245 -25 0.406241)
(6.37755 -25 0.351643)
(6.63265 -25 0.329561)
(6.88775 -25 0.332871)
(7.14286 -25 0.352291)
(7.39796 -25 0.389996)
(7.65306 -25 0.39638)
(7.90816 -25 0.349018)
(8.16327 -25 0.308219)
(8.41837 -25 0.293056)
(8.67347 -25 0.252493)
(8.92857 -25 0.269055)
(9.18367 -25 0.305785)
(9.43878 -25 0.322114)
(9.69388 -25 0.318785)
(9.94898 -25 0.304566)
(10.2041 -25 0.366881)
(10.4592 -25 0.389999)
(10.7143 -25 0.3461)
(10.9694 -25 0.303761)
(11.2245 -25 0.293705)
(11.4796 -25 0.34228)
(11.7347 -25 0.363385)
(11.9898 -25 0.324203)
(12.2449 -25 0.362128)
(12.5 -25 0.414105)
(12.7551 -25 0.471113)
(13.0102 -25 0.468327)
(13.2653 -25 0.460243)
(13.5204 -25 0.443854)
(13.7755 -25 0.408639)
(14.0306 -25 0.327365)
(14.2857 -25 0.314272)
(14.5408 -25 0.336006)
(14.7959 -25 0.377357)
(15.051 -25 0.404984)
(15.3061 -25 0.462464)
(15.5612 -25 0.526235)
(15.8163 -25 0.592334)
(16.0714 -25 0.602598)
(16.3265 -25 0.588163)
(16.5816 -25 0.577714)
(16.8367 -25 0.529816)
(17.0918 -25 0.518032)
(17.3469 -25 0.46872)
(17.602 -25 0.455272)
(17.8571 -25 0.488541)
(18.1122 -25 0.530346)
(18.3673 -25 0.54064)
(18.6224 -25 0.602736)
(18.8776 -25 0.663504)
(19.1327 -25 0.674373)
(19.3878 -25 0.697542)
(19.6429 -25 0.773943)
(19.898 -25 0.844605)
(20.1531 -25 0.926957)
(20.4082 -25 0.930038)
(20.6633 -25 0.988658)
(20.9184 -25 1.02496)
(21.1735 -25 1.02605)
(21.4286 -25 1.07079)
(21.6837 -25 1.13311)
(21.9388 -25 1.22763)
(22.1939 -25 1.31414)
(22.449 -25 1.38367)
(22.7041 -25 1.4897)
(22.9592 -25 1.56362)
(23.2143 -25 1.62983)
(23.4694 -25 1.63513)
(23.7245 -25 1.64895)
(23.9796 -25 1.69107)
(24.232 -24.9973 1.80677)
(24.4685 -24.9787 1.89764)
(24.6732 -24.9283 1.92593)
(24.8326 -24.8326 1.92733)
(24.9283 -24.6732 1.92413)
(24.9787 -24.4685 1.9067)
(24.9973 -24.232 1.86902)
(25 -23.9796 1.75917)
(-25 -23.7245 0.792919)
(-25 -22.9592 0.78372)
(-25 -23.2143 0.784854)
(-25 -23.4694 0.799179)
(25 -23.7245 1.6348)
(25 -23.4694 1.51906)
(25 -23.2143 1.42113)
(25 -22.9592 1.34173)
(-25 -22.7041 0.830641)
(-25 -22.1939 0.899916)
(-25 -22.449 0.855392)
(25 -22.7041 1.30875)
(25 -22.449 1.268)
(25 -22.1939 1.22774)
(25 -21.9388 1.20623)
(25 -21.6837 1.17914)
(25 -21.4286 1.15058)
(25 -21.1735 1.14105)
(25 -20.9184 1.07703)
(-25 -19.898 0.865157)
(-25 -20.1531 0.916931)
(25 -20.6633 1.01173)
(25 -20.4082 0.930501)
(25 -20.1531 0.898931)
(25 -19.898 0.892502)
(-25 -19.6429 0.763673)
(-25 -18.8776 0.580022)
(-25 -19.1327 0.64155)
(-25 -19.3878 0.694323)
(25 -19.6429 0.859981)
(25 -19.3878 0.833545)
(25 -19.1327 0.842722)
(25 -18.8776 0.836425)
(-25 -18.6224 0.523949)
(-25 -17.8571 0.545084)
(-25 -18.1122 0.531483)
(-25 -18.3673 0.503758)
(25 -18.6224 0.844775)
(25 -18.3673 0.845191)
(25 -18.1122 0.881691)
(25 -17.8571 0.971066)
(-25 -17.602 0.553853)
(-25 -17.0918 0.67034)
(-25 -17.3469 0.584341)
(25 -17.602 1.06184)
(25 -17.3469 1.14453)
(25 -17.0918 1.16745)
(25 -16.8367 1.21979)
(-25 -16.5816 0.684385)
(-25 -15.8163 0.661889)
(-25 -16.0714 0.651605)
(-25 -16.3265 0.662159)
(25 -16.5816 1.22642)
(25 -16.3265 1.29936)
(25 -16.0714 1.35607)
(25 -15.8163 1.43785)
(-25 -15.5612 0.687256)
(-25 -14.7959 0.704618)
(-25 -15.051 0.701718)
(-25 -15.3061 0.717906)
(25 -15.5612 1.53358)
(-25 -14.5408 0.739419)
(-25 -13.7755 0.697876)
(-25 -14.0306 0.731006)
(-25 -14.2857 0.719722)
(25 -14.2857 1.72962)
(25 -14.0306 1.71627)
(25 -13.7755 1.66557)
(-25 -13.5204 0.681376)
(-25 -12.7551 0.793387)
(-25 -13.0102 0.741996)
(-25 -13.2653 0.72128)
(25 -13.5204 1.61744)
(25 -13.2653 1.57431)
(25 -13.0102 1.54709)
(25 -12.7551 1.50312)
(-25 -12.5 0.850674)
(-25 -11.7347 0.880404)
(-25 -11.9898 0.846134)
(-25 -12.2449 0.847611)
(25 -12.5 1.45543)
(25 -12.2449 1.39802)
(25 -11.9898 1.34141)
(25 -11.7347 1.29597)
(-25 -11.4796 0.857454)
(-25 -10.7143 0.720489)
(-25 -10.9694 0.75289)
(-25 -11.2245 0.825069)
(25 -11.4796 1.25438)
(25 -11.2245 1.24549)
(25 -10.9694 1.2606)
(25 -10.7143 1.21762)
(-25 -10.4592 0.719204)
(-25 -9.69388 0.900987)
(-25 -9.94898 0.839059)
(-25 -10.2041 0.761866)
(25 -10.4592 1.17816)
(25 -10.2041 1.21282)
(25 -9.94898 1.21125)
(25 -9.69388 1.23333)
(-25 -9.43878 0.912601)
(-25 -8.67347 0.843523)
(-25 -8.92857 0.868065)
(-25 -9.18367 0.907871)
(25 -9.43878 1.26896)
(25 -9.18367 1.29176)
(25 -8.92857 1.28047)
(-25 -8.41837 0.839477)
(-25 -7.65306 0.805057)
(-25 -7.90816 0.838297)
(-25 -8.16327 0.838737)
(25 -8.67347 1.26363)
(25 -8.41837 1.23401)
(25 -8.16327 1.23846)
(25 -7.90816 1.27541)
(25 -7.65306 1.22199)
(-25 -7.39796 0.747982)
(-25 -6.63265 0.789849)
(-25 -6.88775 0.785192)
(-25 -7.14286 0.742131)
(25 -7.39796 1.19675)
(25 -7.14286 1.20096)
(25 -6.88775 1.22269)
(25 -6.63265 1.26889)
(-25 -6.37755 0.783019)
(-25 -5.61225 0.769539)
(-25 -5.86735 0.761268)
(-25 -6.12245 0.756272)
(25 -6.37755 1.32128)
(25 -6.12245 1.32349)
(25 -5.86735 1.30829)
(25 -5.61225 1.29174)
(-25 -5.35714 0.737639)
(-25 -4.59184 0.744102)
(-25 -4.84694 0.725895)
(-25 -5.10204 0.692134)
(25 -5.35714 1.22011)
(25 -5.10204 1.22353)
(25 -4.84694 1.28517)
(25 -4.59184 1.28874)
(-25 -4.33674 0.75332)
(-25 -3.57143 0.646205)
(-25 -3.82653 0.728326)
(-25 -4.08163 0.740341)
(25 -4.33674 1.30984)
(25 -4.08163 1.34934)
(-25 -3.31633 0.58073)
(-25 -2.80612 0.580075)
(-25 -3.06122 0.543879)
(-25 -2.29592 0.523868)
(-25 -1.53061 0.44651)
(-25 -1.78571 0.443391)
(-25 -2.04082 0.468603)
(25 -1.78571 1.37268)
(25 -1.53061 1.37172)
(-25 -1.27551 0.457331)
(-25 -0.510204 0.420653)
(-25 -0.765306 0.460968)
(-25 -1.02041 0.463737)
(25 -1.27551 1.36596)
(25 -1.02041 1.3885)
(25 -0.765306 1.4461)
(25 -0.510204 1.5243)
(-25 -0.255102 0.437953)
(-25 0.510204 0.422287)
(-25 0.255102 0.437963)
(-25 -4.09782e-08 0.444762)
(25 -0.255102 1.57061)
(25 -4.09782e-08 1.65225)
(25 0.255102 1.75021)
(25 0.510204 1.81819)
(-25 0.765306 0.397453)
(-25 1.53061 0.470288)
(-25 1.27551 0.39604)
(-25 1.02041 0.383718)
(25 0.765306 1.8336)
(25 1.02041 1.80402)
(25 1.27551 1.75961)
(25 1.53061 1.71873)
(-25 1.78571 0.563649)
(-25 2.55102 0.691282)
(-25 2.29592 0.686521)
(-25 2.04082 0.620909)
(25 1.78571 1.71117)
(25 2.04082 1.72396)
(25 2.29592 1.73171)
(25 2.55102 1.71975)
(-25 2.80612 0.704013)
(-25 3.57143 0.825257)
(-25 3.31633 0.782352)
(-25 3.06122 0.750455)
(25 2.80612 1.7213)
(25 3.06122 1.72836)
(25 3.31633 1.71584)
(25 3.57143 1.71282)
(-25 3.82653 0.875759)
(-25 4.59184 0.942235)
(-25 4.33673 0.922757)
(-25 4.08163 0.925395)
(-25 4.84694 0.974854)
(-25 5.10204 1.045)
(25 5.61225 1.49557)
(25 5.86735 1.46505)
(25 6.12245 1.45487)
(25 6.37755 1.42237)
(25 6.63265 1.35622)
(25 6.88775 1.28359)
(25 7.14286 1.22915)
(25 7.39796 1.20527)
(25 7.65306 1.20468)
(25 7.90816 1.19559)
(25 8.16327 1.19277)
(25 8.41837 1.18934)
(25 8.67347 1.15198)
(25 8.92857 1.13355)
(25 9.18367 1.1409)
(25 9.43878 1.13983)
(25 9.69388 1.10944)
(25 9.94898 1.05735)
(25 10.2041 0.986707)
(25 10.4592 0.939659)
(25 10.7143 0.937296)
(-25 11.7347 1.82494)
(-25 11.4796 1.80861)
(25 10.9694 0.897493)
(25 11.2245 0.841477)
(25 11.4796 0.782959)
(25 11.7347 0.771229)
(-25 11.9898 1.86164)
(-25 12.7551 1.83812)
(-25 12.5 1.8747)
(-25 12.2449 1.89415)
(25 11.9898 0.739526)
(25 12.2449 0.713934)
(25 12.5 0.667925)
(25 12.7551 0.672757)
(-25 13.0102 1.80925)
(-25 13.7755 1.72581)
(-25 13.5204 1.76835)
(-25 13.2653 1.7797)
(25 13.0102 0.648315)
(25 13.2653 0.707893)
(25 13.5204 0.755423)
(25 13.7755 0.810446)
(-25 14.0306 1.72495)
(-25 14.7959 1.70446)
(-25 14.5408 1.74556)
(-25 14.2857 1.74733)
(25 14.0306 0.869723)
(25 14.2857 0.923578)
(25 14.5408 0.977221)
(25 14.7959 1.05916)
(-25 15.051 1.65636)
(-25 15.8163 1.44822)
(-25 15.5612 1.49568)
(-25 15.3061 1.56914)
(25 15.051 1.10263)
(25 15.3061 1.12495)
(25 15.5612 1.12462)
(25 15.8163 1.11631)
(-25 16.0714 1.33852)
(-25 16.8367 1.22304)
(-25 16.5816 1.19989)
(-25 16.3265 1.26307)
(25 16.0714 1.0911)
(25 16.3265 1.12479)
(25 16.5816 1.15579)
(25 16.8367 1.14384)
(-25 17.0918 1.29145)
(25 17.0918 1.15447)
(25 17.3469 1.13351)
(25 17.602 1.1101)
(25 17.8571 1.15289)
(25 18.1122 1.17042)
(25 18.3673 1.18026)
(25 18.6224 1.2035)
(25 18.8776 1.22207)
(25 19.1327 1.24775)
(25 19.3878 1.25838)
(25 19.6429 1.23666)
(25 19.898 1.22189)
(-25 20.1531 1.2506)
(-25 20.9184 1.20091)
(-25 20.6633 1.20318)
(-25 20.4082 1.19227)
(25 20.1531 1.18823)
(25 20.4082 1.16238)
(25 20.6633 1.16202)
(25 20.9184 1.17912)
(-25 21.1735 1.18189)
(-25 21.9388 1.06621)
(-25 21.6837 1.12666)
(-25 21.4286 1.1264)
(25 21.1735 1.18098)
(25 21.4286 1.16244)
(25 21.6837 1.18339)
(25 21.9388 1.26296)
(-25 22.1939 1.02276)
(-25 22.9592 1.08867)
(-25 22.7041 1.0653)
(-25 22.449 1.02503)
(25 22.1939 1.28423)
(25 22.449 1.30315)
(25 22.7041 1.31175)
(25 22.9592 1.32533)
(-25 23.2143 1.17278)
(-25 23.9796 1.3072)
(-25 23.7245 1.31884)
(-25 23.4694 1.29337)
(25 23.2143 1.38596)
(25 23.4694 1.41215)
(25 23.7245 1.4711)
(25 23.9796 1.5456)
(-24.9973 24.232 1.30093)
(-23.9796 25 1.50552)
(-24.232 24.9973 1.50379)
(-24.4685 24.9787 1.48834)
(-24.6732 24.9283 1.4626)
(-24.9283 24.6732 1.37633)
(-24.9787 24.4685 1.31895)
(-22.9592 25 1.48499)
(-23.2143 25 1.47012)
(-23.4694 25 1.50795)
(-23.7245 25 1.51129)
(-21.9388 25 1.53521)
(-22.1939 25 1.51914)
(-22.449 25 1.5233)
(-22.7041 25 1.52455)
(-20.9184 25 1.63608)
(-21.1735 25 1.5987)
(-21.4286 25 1.57968)
(-21.6837 25 1.57609)
(-19.898 25 1.86598)
(-20.1531 25 1.81748)
(-20.4082 25 1.74177)
(-20.6633 25 1.70071)
(-18.8776 25 2.07349)
(-19.1327 25 2.00226)
(-19.3878 25 1.9443)
(-19.6429 25 1.89662)
(-17.8571 25 1.91065)
(-18.1122 25 1.98946)
(-18.3673 25 2.04574)
(-18.6224 25 2.12831)
(-16.8367 25 1.95552)
(-17.0918 25 1.90311)
(-17.3469 25 1.87098)
(-17.602 25 1.88281)
(-15.8163 25 2.00821)
(-16.0714 25 1.9556)
(-16.3265 25 1.96655)
(-16.5816 25 1.98629)
(-14.7959 25 1.98431)
(-15.051 25 1.97902)
(-15.3061 25 1.98917)
(-15.5612 25 2.00889)
(-13.7755 25 1.92116)
(-14.0306 25 2.01205)
(-14.2857 25 2.0122)
(-14.5408 25 1.98859)
(-12.7551 25 1.7087)
(-13.0102 25 1.78412)
(-13.2653 25 1.82951)
(-13.5204 25 1.84678)
(-11.7347 25 1.6036)
(-11.9898 25 1.60728)
(-12.2449 25 1.61871)
(-12.5 25 1.66945)
(-10.7143 25 1.71729)
(-10.9694 25 1.66743)
(-11.2245 25 1.62977)
(-11.4796 25 1.60679)
(-9.69388 25 1.83391)
(-9.94898 25 1.85034)
(-10.2041 25 1.82721)
(-10.4592 25 1.79002)
(-8.67347 25 1.81067)
(-8.92857 25 1.77965)
(-9.18367 25 1.78314)
(-9.43878 25 1.80019)
(-8.16327 25 1.8901)
(-8.41837 25 1.85733)
(-5.61225 25 1.81012)
(-5.86735 25 1.78106)
(-6.12245 25 1.75844)
(-6.37755 25 1.7898)
(-6.63265 25 1.79638)
(-4.59184 25 2.07409)
(-4.84694 25 2.01612)
(-5.10204 25 1.95774)
(-5.35714 25 1.86619)
(-3.57143 25 2.14289)
(-3.82653 25 2.14126)
(-4.08163 25 2.11377)
(-4.33674 25 2.0896)
(-2.55102 25 2.32636)
(-2.80612 25 2.31025)
(-3.06122 25 2.28263)
(-3.31633 25 2.19726)
(-1.53061 25 2.34778)
(-1.78571 25 2.36433)
(-2.04082 25 2.40811)
(-2.29592 25 2.38731)
(-0.510204 25 2.46831)
(-0.765306 25 2.45242)
(-1.02041 25 2.41176)
(-1.27551 25 2.38077)
(0.510204 25 2.30521)
(0.255102 25 2.35697)
(-4.09782e-08 25 2.39319)
(-0.255102 25 2.40846)
(1.27551 25 2.34524)
(1.02041 25 2.33749)
(0.765306 25 2.30668)
(11.7347 25 1.45925)
(11.4796 25 1.45828)
(11.2245 25 1.46763)
(10.9694 25 1.47809)
(12.7551 25 1.52917)
(12.5 25 1.51146)
(12.2449 25 1.49679)
(11.9898 25 1.47301)
(13.7755 25 1.47485)
(13.5204 25 1.4867)
(13.2653 25 1.48805)
(13.0102 25 1.49753)
(14.7959 25 1.64767)
(14.5408 25 1.62799)
(14.2857 25 1.57369)
(14.0306 25 1.50554)
(15.8163 25 1.60249)
(15.5612 25 1.61735)
(15.3061 25 1.64422)
(15.051 25 1.65154)
(16.8367 25 1.4616)
(16.5816 25 1.53987)
(16.3265 25 1.60324)
(16.0714 25 1.59943)
(17.8571 25 1.40238)
(17.602 25 1.37265)
(17.3469 25 1.36131)
(17.0918 25 1.37769)
(18.8776 25 1.43527)
(18.6224 25 1.42736)
(18.3673 25 1.44905)
(18.1122 25 1.44662)
(19.898 25 1.35809)
(19.6429 25 1.31931)
(19.3878 25 1.33209)
(19.1327 25 1.38591)
(20.9184 25 1.52149)
(20.4082 25 1.44626)
(20.1531 25 1.40126)
(21.9388 25 1.47667)
(21.6837 25 1.46294)
(21.4286 25 1.47622)
(21.1735 25 1.49416)
(22.9592 25 1.48087)
(22.7041 25 1.41017)
(22.449 25 1.38634)
(22.1939 25 1.43488)
(23.9796 25 1.58562)
(23.7245 25 1.57407)
(23.4694 25 1.55596)
(23.2143 25 1.55136)
(24.9973 24.232 1.57691)
(24.232 24.9973 1.59963)
(-24.4944 -24.8899 -0.0984967)
(-24.5541 -24.706 -0.130291)
(-24.2041 -24.93 -0.00977713)
(-24.3781 -24.9618 -0.051025)
(-24.0126 -24.9048 0.0206885)
(-23.7482 -24.992 0.0946572)
(-24.6271 -24.2268 -0.178712)
(-24.6839 -23.9265 -0.176941)
(-24.5836 -24.4965 -0.16013)
(-23.4349 -25.0574 0.195375)
(-23.2402 -25.0233 0.245603)
(-23.0729 -25.0009 0.266913)
(-22.7998 -25.0094 0.307287)
(-22.4704 -24.9772 0.368819)
(-22.1407 -24.9383 0.449436)
(-21.87 -24.9646 0.55937)
(-21.6544 -24.9913 0.631432)
(-21.504 -24.9651 0.671132)
(-21.4195 -24.9539 0.673667)
(-21.2929 -24.9925 0.671808)
(-21.087 -25.045 0.640449)
(-20.8301 -25.1046 0.609931)
(-20.5288 -25.1226 0.571324)
(-20.2192 -25.0572 0.522524)
(-19.869 -24.9725 0.498577)
(-19.5069 -24.9272 0.526885)
(-19.3298 -24.8963 0.570477)
(-19.1855 -24.8632 0.544845)
(-18.8532 -24.9142 0.533647)
(-18.4593 -25.0346 0.593753)
(-18.1292 -25.0641 0.658212)
(-17.8944 -24.9534 0.609612)
(-17.4578 -24.8798 0.62458)
(-17.1429 -24.8655 0.70645)
(-17.062 -24.9065 0.719778)
(-16.7537 -24.9909 0.683964)
(-16.9526 -24.9758 0.720408)
(-16.4717 -24.9505 0.629963)
(-16.1829 -24.8845 0.592264)
(-15.959 -24.8328 0.565433)
(-15.6733 -24.8414 0.515664)
(-15.3675 -24.8683 0.505428)
(-15.1761 -24.848 0.486519)
(-14.9505 -24.8125 0.446776)
(-14.6485 -24.7822 0.409047)
(-14.433 -24.7404 0.395884)
(-14.2031 -24.6943 0.349909)
(-13.8764 -24.6777 0.30136)
(-13.6332 -24.6911 0.290747)
(-13.3577 -24.703 0.235353)
(-13.0448 -24.7001 0.234877)
(-12.831 -24.6344 0.234862)
(-12.625 -24.5729 0.215471)
(-12.3809 -24.5874 0.18443)
(-12.0721 -24.6087 0.132496)
(-11.7163 -24.6103 0.118995)
(-11.365 -24.6141 0.14478)
(-11.0418 -24.618 0.198696)
(-10.7945 -24.6212 0.254901)
(-10.5435 -24.604 0.253172)
(-10.2136 -24.6708 0.226565)
(-9.86441 -24.7316 0.232482)
(-9.72894 -24.7689 0.248917)
(-9.59235 -24.8224 0.217736)
(-9.2824 -24.8031 0.176969)
(-8.99715 -24.7447 0.152228)
(-8.7588 -24.8014 0.128929)
(-8.45938 -24.9469 0.115733)
(-8.09646 -25.032 0.122613)
(-7.75179 -25.055 0.169702)
(-7.468 -25.0897 0.22605)
(-7.21006 -25.149 0.295855)
(-6.95895 -25.1629 0.351024)
(-6.8229 -25.1318 0.36545)
(-6.65219 -25.1397 0.355717)
(-6.3731 -25.169 0.37169)
(-6.19057 -25.147 0.363969)
(-6.00938 -25.1046 0.323015)
(-5.75849 -25.081 0.283867)
(-5.46463 -25.0446 0.233532)
(-5.14767 -25.0006 0.201541)
(-4.80287 -24.9715 0.196216)
(-4.43253 -24.9526 0.230735)
(-4.1622 -24.949 0.290628)
(-3.92925 -24.9528 0.321976)
(-3.70665 -24.9417 0.361981)
(-3.52117 -24.9292 0.368797)
(-3.23045 -24.9542 0.383207)
(-2.94458 -24.9969 0.429282)
(-2.82627 -25.0292 0.447672)
(-2.57718 -25.0162 0.420501)
(-2.18193 -24.9271 0.428215)
(-1.89451 -24.8287 0.47308)
(-1.6521 -24.7734 0.510306)
(-1.45651 -24.8211 0.527435)
(-1.09576 -24.9326 0.528236)
(-1.28598 -24.9296 0.552726)
(-0.89794 -24.9108 0.506055)
(-0.73891 -24.9324 0.490199)
(-0.589585 -24.9367 0.436274)
(-0.32725 -24.943 0.333881)
(0.0154706 -24.9962 0.234163)
(0.363288 -25.0525 0.185387)
(0.579021 -25.0395 0.154598)
(0.691083 -25.0266 0.117668)
(0.862045 -25.066 0.0576109)
(1.14239 -25.1023 -0.0725768)
(1.50223 -25.1299 -0.195844)
(1.84052 -25.1776 -0.263999)
(2.12153 -25.2381 -0.290631)
(2.4164 -25.2528 -0.334818)
(2.74215 -25.2213 -0.389782)
(3.05762 -25.2272 -0.392196)
(3.24247 -25.2091 -0.382394)
(3.66582 -25.0944 -0.514709)
(3.3766 -25.1242 -0.452359)
(4.01397 -25.072 -0.551103)
(4.35532 -24.9581 -0.584829)
(4.66304 -24.8724 -0.575071)
(4.90773 -24.8817 -0.545245)
(5.06255 -24.8952 -0.538213)
(5.2911 -24.9145 -0.571474)
(5.58923 -24.9511 -0.564493)
(5.82136 -24.9551 -0.580692)
(5.97627 -24.967 -0.582437)
(6.19499 -25.0225 -0.631267)
(6.56856 -25.0856 -0.664701)
(6.91193 -25.1327 -0.657974)
(7.21513 -25.1885 -0.627109)
(7.44651 -25.2573 -0.575121)
(7.7885 -25.1919 -0.625071)
(8.07147 -25.1283 -0.679238)
(8.3327 -25.0902 -0.699162)
(8.6157 -25.079 -0.742685)
(8.99141 -25.1302 -0.720416)
(9.24666 -25.2069 -0.670533)
(9.46859 -25.2383 -0.648619)
(9.71576 -25.1801 -0.664582)
(10.0455 -25.1214 -0.683318)
(10.3483 -25.1361 -0.613251)
(10.4597 -25.1156 -0.603287)
(10.8768 -24.9553 -0.690929)
(10.6014 -25.0197 -0.647308)
(11.2697 -24.9752 -0.704952)
(11.599 -25.0209 -0.650335)
(11.7097 -25.0269 -0.635913)
(11.9885 -25.0157 -0.675645)
(12.3724 -25.0615 -0.62777)
(12.6294 -25.1861 -0.559863)
(13.0145 -25.2824 -0.490962)
(13.2306 -25.2485 -0.507743)
(13.4221 -25.2378 -0.522453)
(13.56 -25.238 -0.538381)
(13.8397 -25.2565 -0.620113)
(14.2797 -25.2954 -0.641049)
(14.656 -25.3153 -0.605947)
(14.9348 -25.3049 -0.564811)
(15.2218 -25.2813 -0.539289)
(15.5381 -25.2585 -0.475248)
(15.798 -25.2521 -0.412026)
(15.9643 -25.2502 -0.364452)
(16.0879 -25.2221 -0.372285)
(16.2909 -25.1866 -0.393617)
(16.4752 -25.1698 -0.401991)
(16.7194 -25.1679 -0.448974)
(16.9858 -25.1606 -0.46326)
(17.2342 -25.1419 -0.514709)
(17.6076 -25.1663 -0.53075)
(17.9775 -25.2184 -0.479842)
(18.2271 -25.2231 -0.43764)
(18.5045 -25.2072 -0.427987)
(18.8165 -25.24 -0.348434)
(18.989 -25.2935 -0.285927)
(19.2128 -25.2969 -0.277163)
(19.6132 -25.2389 -0.246945)
(19.9297 -25.1812 -0.166729)
(20.166 -25.182 -0.101438)
(20.3594 -25.1514 -0.0397167)
(20.7994 -25.1097 0.00406981)
(20.55 -25.0849 -0.0561977)
(20.9825 -25.1633 0.040489)
(21.2691 -25.1629 0.0440815)
(21.6404 -25.1446 0.104235)
(21.9856 -25.1222 0.187672)
(22.2811 -25.0985 0.293248)
(22.4895 -25.0835 0.362508)
(22.7396 -25.1144 0.433717)
(22.9927 -25.1918 0.551684)
(23.2099 -25.2376 0.625208)
(23.344 -25.2498 0.670299)
(23.4927 -25.2644 0.671017)
(23.8516 -25.2547 0.690329)
(24.3056 -25.1899 0.764988)
(24.6208 -25.1478 0.897807)
(24.7285 -25.1529 0.947871)
(24.8258 -25.1297 0.958433)
(25.0329 -25.0396 0.969721)
(25.1784 -24.862 0.97455)
(25.2651 -24.6445 0.964902)
(25.285 -24.5078 0.95188)
(25.2783 -24.388 0.889851)
(-24.716 -23.6771 -0.164721)
(-24.6831 -23.2243 -0.163539)
(-24.6959 -22.9072 -0.167481)
(-24.7111 -23.4725 -0.158156)
(25.3 -24.1465 0.779304)
(25.3101 -23.8224 0.636341)
(25.2581 -23.4908 0.495473)
(25.199 -23.1517 0.380829)
(-24.7718 -22.616 -0.138963)
(-24.8123 -22.089 -0.0766761)
(-24.7313 -21.9506 -0.0703803)
(-24.8315 -22.3298 -0.123062)
(25.1748 -22.8377 0.333288)
(25.1481 -22.5843 0.288357)
(25.1296 -22.3145 0.243545)
(25.1422 -22.0439 0.22201)
(25.1326 -21.7697 0.191747)
(25.1279 -21.5194 0.162971)
(25.1621 -21.3316 0.167056)
(25.1663 -21.1476 0.117984)
(25.1264 -20.9121 0.0514693)
(25.068 -20.5917 -0.0501508)
(25.0736 -20.2646 -0.092097)
(25.1733 -20.0368 -0.0825035)
(-25.2225 -20.2223 -0.0542132)
(-25.2751 -19.9508 -0.147061)
(-25.29 -19.3318 -0.294483)
(-25.2425 -19.055 -0.373742)
(-25.2894 -19.6194 -0.234386)
(25.2805 -19.8014 -0.0866724)
(25.353 -19.4473 -0.100139)
(25.3633 -19.1115 -0.0887027)
(25.3188 -18.8394 -0.110625)
(-25.1455 -18.7102 -0.461494)
(-25.0266 -18.0304 -0.464794)
(-25.0118 -17.7999 -0.453177)
(-25.0576 -18.3231 -0.493587)
(25.2668 -18.5833 -0.118176)
(25.2605 -18.3135 -0.118766)
(25.2991 -17.9114 -0.0511373)
(25.3138 -17.538 0.0768732)
(-24.9925 -17.5196 -0.442699)
(-25.0079 -17.1469 -0.395395)
(25.3311 -17.3163 0.162579)
(25.3396 -17.1461 0.225645)
(25.2637 -16.8824 0.225891)
(25.1636 -16.6885 0.244478)
(-24.9758 -16.0696 -0.34809)
(-25.0116 -15.7847 -0.337531)
(-24.9701 -16.3987 -0.334759)
(25.1237 -16.4267 0.246287)
(25.0946 -16.0596 0.340346)
(25.0436 -15.7836 0.39941)
(25.0887 -15.5548 0.476726)
(-25.1111 -15.5137 -0.305389)
(-25.1217 -15.0356 -0.290713)
(-25.0838 -14.7255 -0.289369)
(-25.1666 -15.2738 -0.267567)
(-25.1293 -14.5538 -0.252097)
(-25.3069 -14.1116 -0.217265)
(-25.3399 -13.8614 -0.238615)
(-25.2204 -14.354 -0.253269)
(25.0137 -14.1724 0.726497)
(25.0108 -14.2391 0.730777)
(25.0856 -14.0172 0.699014)
(-25.3139 -13.4529 -0.265644)
(-25.2611 -12.879 -0.214332)
(-25.2867 -12.5786 -0.148201)
(-25.2737 -13.1342 -0.231539)
(25.2093 -13.7638 0.670386)
(25.3168 -13.4325 0.640686)
(25.3273 -13.1113 0.607609)
(25.2452 -12.8684 0.54032)
(-25.1823 -11.93 -0.13528)
(-25.1971 -11.7247 -0.0999113)
(-25.2269 -12.2035 -0.125411)
(25.1423 -12.6549 0.477826)
(25.0775 -12.4448 0.421278)
(25.0824 -12.2081 0.369028)
(25.1503 -11.9452 0.330027)
(-25.1506 -11.5269 -0.129973)
(-24.9769 -11.1692 -0.226663)
(-25.0113 -10.8146 -0.274384)
(-25.0346 -11.3687 -0.163853)
(0.63548 -11.0367 0.296909)
(0.554639 -11.1622 0.291443)
(25.2266 -11.6061 0.288681)
(25.2799 -11.2374 0.285566)
(25.3231 -11.0428 0.31712)
(25.3577 -10.8822 0.299042)
(-25.0979 -10.4307 -0.275577)
(-25.2651 -9.7341 -0.10088)
(-25.1879 -10.019 -0.202702)
(25.3984 -10.4899 0.261479)
(25.4088 -10.1383 0.30258)
(25.4019 -9.91068 0.296366)
(25.4351 -9.63357 0.334989)
(-25.2847 -9.38979 -0.0447346)
(-25.1869 -9.02974 -0.109076)
(-25.1349 -8.69718 -0.147047)
(-25.2303 -9.24535 -0.0632887)
(25.4867 -9.36388 0.398661)
(25.462 -9.10893 0.40807)
(-25.1058 -8.42993 -0.154816)
(-25.2094 -7.99801 -0.135396)
(-25.1847 -7.77306 -0.170376)
(-25.1466 -8.20489 -0.149574)
(25.0257 -8.12475 0.239558)
(24.9937 -8.45725 0.234804)
(25.016 -7.76876 0.22886)
(-25.0643 -7.45152 -0.248509)
(-25.1502 -6.85919 -0.203028)
(-25.2235 -6.6495 -0.184668)
(-25.0412 -7.11591 -0.256648)
(24.9942 -7.45439 0.198363)
(25.036 -7.1186 0.201908)
(25.0794 -6.77337 0.232454)
(25.1285 -6.47594 0.289675)
(-25.2125 -6.41729 -0.193329)
(-25.1689 -5.84495 -0.224083)
(-25.1413 -5.62635 -0.220298)
(-25.1773 -6.15239 -0.227401)
(25.1862 -6.29894 0.341943)
(25.2011 -6.13765 0.344059)
(25.1744 -5.91053 0.324585)
(25.1488 -5.77082 0.315701)
(-25.0595 -5.457 -0.255555)
(-24.9114 -4.73283 -0.263606)
(-24.9103 -4.5511 -0.251015)
(-24.9663 -5.08306 -0.307103)
(25.1372 -5.48148 0.237419)
(25.144 -4.98955 0.24038)
(25.14 -4.70744 0.304915)
(25.0908 -4.50858 0.296366)
(-24.9332 -4.35437 -0.24427)
(-24.8942 -3.99554 -0.251562)
(-24.8995 -3.85794 -0.306583)
(-24.9229 -4.10983 -0.256271)
(25.0853 -4.24845 0.31741)
(-24.9165 -3.51818 -0.395099)
(-24.921 -3.06126 -0.452978)
(-24.8859 -2.68081 -0.405428)
(-24.664 -1.81108 -0.498105)
(-24.6504 -1.50476 -0.490012)
(-24.6929 -2.17266 -0.47387)
(25.0472 -1.513 0.373002)
(25.113 -1.75407 0.379606)
(-24.6406 -1.23285 -0.474826)
(-24.6935 -0.851857 -0.486937)
(-24.653 -0.502452 -0.517181)
(-24.658 -1.04583 -0.475623)
(24.9855 -1.21188 0.368092)
(24.9466 -0.857958 0.403243)
(24.9457 -0.515451 0.479362)
(24.9512 -0.272526 0.554205)
(-24.6171 -0.220006 -0.485141)
(-24.6915 0.198246 -0.511559)
(-24.719 0.419655 -0.533125)
(-24.651 -0.0302744 -0.491851)
(24.9732 -0.034972 0.595516)
(25.0366 0.296487 0.697935)
(25.1017 0.538253 0.796566)
(-24.7496 0.674391 -0.566383)
(-24.7972 1.43396 -0.570237)
(-24.8112 1.82939 -0.465166)
(-24.7801 1.00289 -0.591623)
(25.0747 0.787737 0.836651)
(-24.8187 2.06404 -0.379556)
(-24.9524 2.36706 -0.309786)
(-25.01 2.5928 -0.307772)
(-24.8513 2.23757 -0.348176)
(-25.0038 2.91968 -0.289486)
(-25.0979 3.43953 -0.205166)
(-25.1267 3.74224 -0.151854)
(-25.0411 3.17793 -0.241854)
(-25.1321 4.01944 -0.0964996)
(-25.065 4.41117 -0.0723293)
(-24.9754 4.74077 -0.04629)
(-25.1187 4.18405 -0.0622145)
(-24.8887 5.08019 0.00885111)
(-24.8493 5.2658 0.0700856)
(24.8107 5.81125 0.484763)
(24.9136 5.60925 0.499321)
(24.8164 6.01362 0.477945)
(24.8578 6.17616 0.453259)
(24.8568 6.38719 0.397448)
(24.833 6.65823 0.324755)
(24.8344 6.98297 0.256035)
(24.8917 7.30271 0.21574)
(24.9792 7.59373 0.206667)
(25.0424 7.86196 0.197569)
(25.1014 8.11468 0.19912)
(25.1319 8.345 0.200812)
(25.082 8.60984 0.157415)
(25.0065 8.93745 0.133607)
(24.9835 9.1884 0.141054)
(25.0035 9.36489 0.142579)
(25.001 9.54919 0.119966)
(24.94 9.75931 0.0773727)
(24.8526 10.0213 0.0146922)
(24.8581 10.3189 -0.0401992)
(24.9286 10.6059 -0.0542197)
(24.8872 10.852 -0.08914)
(24.7819 11.0496 -0.118635)
(24.762 11.3301 -0.176726)
(24.7979 11.632 -0.202708)
(-24.8029 12.3935 0.900125)
(-24.8209 12.6121 0.864761)
(-24.768 12.2331 0.921521)
(-24.7177 12.242 0.943038)
(-24.7151 12.0985 0.909306)
(24.8163 11.8807 -0.237372)
(24.7729 12.153 -0.255578)
(24.7175 12.438 -0.289318)
(24.7086 12.7131 -0.2829)
(-24.8524 12.8835 0.828386)
(-24.9683 13.3838 0.778267)
(-24.9606 13.7307 0.727607)
(-24.9014 13.1508 0.79121)
(24.7566 13.0296 -0.32138)
(24.8755 13.3969 -0.275536)
(24.9492 13.7184 -0.223428)
(24.9184 14.0219 -0.155281)
(-24.893 14.1013 0.733216)
(-24.9744 14.4314 0.751903)
(-24.9857 14.6382 0.717093)
(-24.9059 14.2834 0.751785)
(24.8462 14.2862 -0.0847128)
(24.7814 14.5082 -0.0265247)
(24.7779 14.7723 0.0301096)
(24.8209 15.0062 0.0980697)
(-24.943 14.8223 0.684558)
(-24.9682 15.2768 0.537551)
(-24.9832 15.5613 0.481456)
(-24.9129 15.0094 0.618186)
(24.8372 15.1852 0.125155)
(24.8325 15.3439 0.139812)
(24.8629 15.5183 0.135023)
(24.8676 15.7725 0.126106)
(24.8283 16.1063 0.106572)
(24.8476 16.4128 0.140261)
(25.0502 16.7897 0.146224)
(24.9453 16.5586 0.157562)
(25.0914 17.0748 0.158831)
(25.0541 17.2946 0.136346)
(25.0002 17.6588 0.111713)
(24.9731 17.9817 0.161067)
(24.9515 18.1798 0.173904)
(24.9523 18.4171 0.182645)
(24.9669 18.7044 0.207437)
(24.952 18.9784 0.228324)
(24.9576 19.1831 0.249945)
(24.983 19.3611 0.258896)
(25.0118 19.5479 0.241267)
(25.0513 19.7879 0.22931)
(-24.8037 20.6896 0.223014)
(-24.7725 20.9004 0.227306)
(-24.8194 20.3249 0.212262)
(25.0596 20.045 0.195886)
(25.0761 20.333 0.16815)
(25.1257 20.6701 0.169986)
(25.1255 20.9807 0.189006)
(-24.7568 21.0294 0.22269)
(-24.8101 21.5506 0.153911)
(-24.815 21.7573 0.10039)
(-24.7761 21.309 0.159179)
(25.0474 21.1942 0.182319)
(25.0006 21.4268 0.162473)
(25.0567 21.8266 0.195289)
(-24.8004 22.115 0.0461044)
(-24.9124 22.8028 0.0740592)
(-24.9521 23.1488 0.108014)
(-24.8434 22.4866 0.0380906)